Circuit: ********************************************************************************

WARNING: Node 2 is floating.
WARNING: Node 3 is floating.

Warning: Pd = 0 is less than W.
Warning: Ps = 0 is less than W.
Warning: Pd = 0 is less than W.
Warning: Ps = 0 is less than W.
Warning: Pd = 0 is less than W.
Warning: Ps = 0 is less than W.
Warning: Pd = 0 is less than W.
Warning: Ps = 0 is less than W.
Direct Newton iteration for .op point succeeded.

Date: Mon Jul 01 13:37:23 2019
Total elapsed time: 0.092 seconds.

tnom = 27
temp = 27
method = modified trap
totiter = 2444
traniter = 2417
tranpoints = 1118
accept = 1094
rejected = 24
matrix size = 11
fillins = 2
solver = Normal
Matrix Compiler1: 862 bytes object code size  0.2/0.1/[0.1]
Matrix Compiler2: 1.19 KB object code size  0.1/0.1/[0.1]

