Circuit: ********************************************************************************

WARNING: Node 1 is floating.
WARNING: Node 3 is floating.

Warning: Pd = 0 is less than W.
Warning: Ps = 0 is less than W.
Warning: Pd = 0 is less than W.
Warning: Ps = 0 is less than W.
Warning: Pd = 0 is less than W.
Warning: Ps = 0 is less than W.
Warning: Pd = 0 is less than W.
Warning: Ps = 0 is less than W.
Direct Newton iteration for .op point succeeded.

Date: Mon Jul 01 14:20:48 2019
Total elapsed time: 0.074 seconds.

tnom = 27
temp = 27
method = modified trap
totiter = 2472
traniter = 2445
tranpoints = 1126
accept = 1097
rejected = 29
matrix size = 12
fillins = 2
solver = Normal
Matrix Compiler1: 1.20 KB object code size  0.2/0.1/[0.1]
Matrix Compiler2: off  [0.1]/0.2/0.2

