Circuit: ********************************************************************************

WARNING: Node 1 is floating.
WARNING: Node 3 is floating.

Warning: Pd = 0 is less than W.
Warning: Ps = 0 is less than W.
Warning: Pd = 0 is less than W.
Warning: Ps = 0 is less than W.
Warning: Pd = 0 is less than W.
Warning: Ps = 0 is less than W.
Warning: Pd = 0 is less than W.
Warning: Ps = 0 is less than W.
Direct Newton iteration for .op point succeeded.

Date: Mon Jul 01 14:00:48 2019
Total elapsed time: 0.090 seconds.

tnom = 27
temp = 27
method = modified trap
totiter = 2488
traniter = 2452
tranpoints = 1126
accept = 1099
rejected = 27
matrix size = 12
fillins = 2
solver = Normal
Matrix Compiler1: 1.20 KB object code size  0.3/0.2/[0.1]
Matrix Compiler2: 1.36 KB object code size  0.2/0.4/[0.2]

