Circuit: ********************************************************************************

WARNING: Node 1 is floating.
WARNING: Node 5 is floating.
WARNING: Node 7 is floating.

Warning: Pd = 0 is less than W.
Warning: Ps = 0 is less than W.
Warning: Pd = 0 is less than W.
Warning: Ps = 0 is less than W.
Warning: Pd = 0 is less than W.
Warning: Ps = 0 is less than W.
Warning: Pd = 0 is less than W.
Warning: Ps = 0 is less than W.
Warning: Pd = 0 is less than W.
Warning: Ps = 0 is less than W.
Warning: Pd = 0 is less than W.
Warning: Ps = 0 is less than W.
Direct Newton iteration for .op point succeeded.

Date: Wed Jul 03 15:53:41 2019
Total elapsed time: 0.211 seconds.

tnom = 27
temp = 27
method = modified trap
totiter = 3375
traniter = 3336
tranpoints = 1347
accept = 1230
rejected = 117
matrix size = 33
fillins = 14
solver = Normal
Thread vector: 29.7/22.8[4] 14.9/11.3[4] 2.9/9.1[1] 0.2/6.6[1]  2592/500
Matrix Compiler1: 7.73 KB object code size  2.8/1.3/[0.5]
Matrix Compiler2: 5.20 KB object code size  1.1/1.2/[0.4]

