Circuit: ********************************************************************************

WARNING: Node 1 is floating.
WARNING: Node 3 is floating.

Warning: Pd = 0 is less than W.
Warning: Ps = 0 is less than W.
Warning: Pd = 0 is less than W.
Warning: Ps = 0 is less than W.
Direct Newton iteration for .op point succeeded.

Date: Wed Jul 03 13:54:15 2019
Total elapsed time: 0.438 seconds.

tnom = 27
temp = 27
method = modified trap
totiter = 2401
traniter = 2373
tranpoints = 1116
accept = 1094
rejected = 22
matrix size = 10
fillins = 0
solver = Normal
Matrix Compiler1: 516 bytes object code size  0.5/0.3/[0.2]
Matrix Compiler2: 968 bytes object code size  0.3/0.4/[0.2]

