Circuit: ********************************************************************************

WARNING: Node 1 is floating.
WARNING: Node 3 is floating.

Warning: Pd = 0 is less than W.
Warning: Ps = 0 is less than W.
Warning: Pd = 0 is less than W.
Warning: Ps = 0 is less than W.
Warning: Pd = 0 is less than W.
Warning: Ps = 0 is less than W.
Warning: Pd = 0 is less than W.
Warning: Ps = 0 is less than W.
Direct Newton iteration for .op point succeeded.

Date: Mon Jul 01 14:52:05 2019
Total elapsed time: 0.081 seconds.

tnom = 27
temp = 27
method = modified trap
totiter = 2430
traniter = 2402
tranpoints = 1106
accept = 1085
rejected = 21
matrix size = 11
fillins = 2
solver = Normal
Matrix Compiler1: 862 bytes object code size  0.7/0.1/[0.1]
Matrix Compiler2: off  [0.1]/0.2/0.1

