Circuit: ********************************************************************************

WARNING: Node 1 is floating.
WARNING: Node 4 is floating.

Warning: Pd = 0 is less than W.
Warning: Ps = 0 is less than W.
Warning: Pd = 0 is less than W.
Warning: Ps = 0 is less than W.
Warning: Pd = 0 is less than W.
Warning: Ps = 0 is less than W.
Warning: Pd = 0 is less than W.
Warning: Ps = 0 is less than W.
Warning: Pd = 0 is less than W.
Warning: Ps = 0 is less than W.
Warning: Pd = 0 is less than W.
Warning: Ps = 0 is less than W.
Direct Newton iteration for .op point succeeded.

Date: Mon Jul 01 16:32:06 2019
Total elapsed time: 0.125 seconds.

tnom = 27
temp = 27
method = modified trap
totiter = 3217
traniter = 3174
tranpoints = 1334
accept = 1222
rejected = 112
matrix size = 19
fillins = 4
solver = Normal
Thread vector: 11.9/10.7[2] 2.4/8.4[1] 1.0/2.3[1] 0.1/1.0[1]  2592/500
Matrix Compiler1: 3.43 KB object code size  0.7/0.5/[0.2]
Matrix Compiler2: 2.67 KB object code size  0.7/1.0/[0.3]

